Version 4
SHEET 1 1016 680
WIRE 672 -80 576 -80
WIRE 848 -80 752 -80
WIRE 112 -16 64 -16
WIRE 128 -16 112 -16
WIRE 64 64 64 -16
WIRE 752 64 704 64
WIRE 800 64 752 64
WIRE 704 128 704 64
WIRE 352 144 224 144
WIRE 576 144 576 -80
WIRE 576 144 432 144
WIRE 672 144 576 144
WIRE 848 160 848 -80
WIRE 848 160 736 160
WIRE 912 160 848 160
WIRE 64 176 64 144
WIRE 672 176 576 176
WIRE 224 208 224 144
WIRE 704 288 704 192
WIRE 752 288 704 288
WIRE 800 288 752 288
WIRE 112 320 64 320
WIRE 144 320 112 320
WIRE 576 320 576 176
WIRE 224 336 224 288
WIRE 64 368 64 320
WIRE 64 496 64 448
FLAG 64 176 0
FLAG 64 496 0
FLAG 224 336 0
FLAG 112 -16 supply+
FLAG 112 320 supply-
FLAG 224 144 in
IOPIN 224 144 In
FLAG 912 160 out
IOPIN 912 160 Out
FLAG 752 64 supply+
FLAG 752 288 supply-
FLAG 576 320 0
SYMBOL voltage 64 48 R0
WINDOW 123 0 0 Left 2
WINDOW 39 0 0 Left 2
SYMATTR InstName V1
SYMATTR Value 10
SYMBOL voltage 64 352 R0
WINDOW 123 0 0 Left 2
WINDOW 39 0 0 Left 2
SYMATTR InstName V2
SYMATTR Value -10
SYMBOL voltage 224 192 R0
WINDOW 123 0 0 Left 2
WINDOW 39 0 0 Left 2
SYMATTR InstName V3
SYMATTR Value SINE(0 100m 1k)
SYMBOL res 336 160 R270
WINDOW 0 32 56 VTop 2
WINDOW 3 0 56 VBottom 2
SYMATTR InstName R1
SYMATTR Value 1k
SYMBOL LM741 704 96 R0
SYMATTR InstName U1
SYMBOL res 656 -64 R270
WINDOW 0 32 56 VTop 2
WINDOW 3 0 56 VBottom 2
SYMATTR InstName R2
SYMATTR Value {X}
TEXT 240 384 Left 2 !.STEP PARAM X 1k 10k 1k
TEXT 30 520 Left 2 !.tran 3m
