Version 4
SHEET 1 1408 680
WIRE 64 80 32 80
WIRE 176 80 64 80
WIRE 320 80 240 80
WIRE 400 80 320 80
WIRE 448 80 400 80
WIRE 704 80 672 80
WIRE 816 80 704 80
WIRE 960 80 880 80
WIRE 1040 80 960 80
WIRE 1168 80 1104 80
WIRE 1216 80 1168 80
WIRE 320 128 320 80
WIRE 400 128 400 80
WIRE 960 128 960 80
WIRE 1168 128 1168 80
WIRE 64 144 64 80
WIRE 704 144 704 80
WIRE 64 240 64 224
WIRE 320 240 320 192
WIRE 320 240 64 240
WIRE 400 240 400 208
WIRE 400 240 320 240
WIRE 704 240 704 224
WIRE 960 240 960 192
WIRE 960 240 704 240
WIRE 1168 240 1168 192
WIRE 1168 240 960 240
WIRE 64 272 64 240
WIRE 704 272 704 240
FLAG 64 272 0
FLAG 32 80 in_1
IOPIN 32 80 In
FLAG 448 80 out_1
IOPIN 448 80 Out
FLAG 704 272 0
FLAG 672 80 in_2
IOPIN 672 80 In
FLAG 1216 80 out_2
IOPIN 1216 80 Out
SYMBOL voltage 64 128 R0
WINDOW 123 0 0 Left 0
WINDOW 39 0 0 Left 0
SYMATTR InstName V1
SYMATTR Value SINE(0 10 100k)
SYMBOL cap 240 64 R90
WINDOW 0 0 32 VBottom 2
WINDOW 3 32 32 VTop 2
SYMATTR InstName C1
SYMATTR Value 0.05µ
SYMBOL diode 336 192 R180
WINDOW 0 24 64 Left 2
WINDOW 3 24 0 Left 2
SYMATTR InstName D1
SYMATTR Value 1N4148
SYMBOL res 384 112 R0
SYMATTR InstName R1
SYMATTR Value 1k
SYMBOL voltage 704 128 R0
WINDOW 123 0 0 Left 0
WINDOW 39 0 0 Left 0
SYMATTR InstName V2
SYMATTR Value SINE(0 10 100k)
SYMBOL cap 880 64 R90
WINDOW 0 0 32 VBottom 2
WINDOW 3 32 32 VTop 2
SYMATTR InstName C2
SYMATTR Value 0.05µ
SYMBOL diode 976 192 R180
WINDOW 0 24 64 Left 2
WINDOW 3 24 0 Left 2
SYMATTR InstName D2
SYMATTR Value 1N4148
SYMBOL diode 1040 96 R270
WINDOW 0 32 32 VTop 2
WINDOW 3 0 32 VBottom 2
SYMATTR InstName D3
SYMATTR Value 1N4148
SYMBOL cap 1152 128 R0
SYMATTR InstName C3
SYMATTR Value 0.05µ
TEXT -76 296 Left 2 !.tran 200u
TEXT -16 8 Left 2 ;3-1
TEXT 616 -16 Left 2 ;3-2
